<?xml version="1.0" encoding="UTF-8"?>

<!-- generated on 2024-10-31 22:16:47 by Eclipse SUMO netedit Version 1.20.0
<configuration xmlns:xsi="http://www.w3.org/2001/XMLSchema-instance" xsi:noNamespaceSchemaLocation="http://sumo.dlr.de/xsd/neteditConfiguration.xsd">

    <input>
        <sumo-net-file value="D:\option-critic\data\exp.net.xml"/>
    </input>

    <output>
        <output-file value="D:\option-critic\data\exp.net.xml"/>
    </output>

    <processing>
        <geometry.min-radius.fix.railways value="false"/>
        <geometry.max-grade.fix value="false"/>
        <offset.disable-normalization value="true"/>
        <lefthand value="0"/>
    </processing>

    <junctions>
        <no-turnarounds value="true"/>
        <junctions.corner-detail value="5"/>
        <junctions.limit-turn-speed value="5.50"/>
        <rectangular-lane-cut value="0"/>
    </junctions>

    <pedestrian>
        <walkingareas value="0"/>
    </pedestrian>

</configuration>
-->

<net version="1.20" junctionCornerDetail="5" limitTurnSpeed="5.50" xmlns:xsi="http://www.w3.org/2001/XMLSchema-instance" xsi:noNamespaceSchemaLocation="http://sumo.dlr.de/xsd/net_file.xsd">

    <location netOffset="0.00,0.00" convBoundary="0.00,0.00,2800.00,800.00" origBoundary="0.00,0.00,2800.00,800.00" projParameter="!"/>

    <type id="a" priority="1" numLanes="2" speed="20.00"/>

    <edge id=":n1_0" function="internal">
        <lane id=":n1_0_0" index="0" speed="6.51" length="9.03" shape="392.00,413.60 391.65,411.15 390.60,409.40 388.85,408.35 386.40,408.00"/>
    </edge>
    <edge id=":n1_1" function="internal">
        <lane id=":n1_1_0" index="0" speed="20.00" length="27.20" shape="392.00,413.60 392.00,386.40"/>
        <lane id=":n1_1_1" index="1" speed="20.00" length="27.20" shape="395.20,413.60 395.20,386.40"/>
    </edge>
    <edge id=":n1_3" function="internal">
        <lane id=":n1_3_0" index="0" speed="10.88" length="14.35" shape="398.40,413.60 399.35,405.55 402.12,399.95"/>
    </edge>
    <edge id=":n1_16" function="internal">
        <lane id=":n1_16_0" index="0" speed="10.88" length="12.79" shape="402.12,399.95 402.20,399.80 406.95,396.35 413.60,395.20"/>
    </edge>
    <edge id=":n1_4" function="internal">
        <lane id=":n1_4_0" index="0" speed="6.51" length="9.03" shape="413.60,408.00 411.15,408.35 409.40,409.40 408.35,411.15 408.00,413.60"/>
    </edge>
    <edge id=":n1_5" function="internal">
        <lane id=":n1_5_0" index="0" speed="20.00" length="27.20" shape="413.60,408.00 386.40,408.00"/>
        <lane id=":n1_5_1" index="1" speed="20.00" length="27.20" shape="413.60,404.80 386.40,404.80"/>
    </edge>
    <edge id=":n1_7" function="internal">
        <lane id=":n1_7_0" index="0" speed="10.88" length="14.35" shape="413.60,401.60 405.55,400.65 399.95,397.88"/>
    </edge>
    <edge id=":n1_17" function="internal">
        <lane id=":n1_17_0" index="0" speed="10.88" length="12.79" shape="399.95,397.88 399.80,397.80 396.35,393.05 395.20,386.40"/>
    </edge>
    <edge id=":n1_8" function="internal">
        <lane id=":n1_8_0" index="0" speed="6.51" length="9.03" shape="408.00,386.40 408.35,388.85 409.40,390.60 411.15,391.65 413.60,392.00"/>
    </edge>
    <edge id=":n1_9" function="internal">
        <lane id=":n1_9_0" index="0" speed="20.00" length="27.20" shape="408.00,386.40 408.00,413.60"/>
        <lane id=":n1_9_1" index="1" speed="20.00" length="27.20" shape="404.80,386.40 404.80,413.60"/>
    </edge>
    <edge id=":n1_11" function="internal">
        <lane id=":n1_11_0" index="0" speed="10.88" length="14.35" shape="401.60,386.40 400.65,394.45 397.88,400.05"/>
    </edge>
    <edge id=":n1_18" function="internal">
        <lane id=":n1_18_0" index="0" speed="10.88" length="12.79" shape="397.88,400.05 397.80,400.20 393.05,403.65 386.40,404.80"/>
    </edge>
    <edge id=":n1_12" function="internal">
        <lane id=":n1_12_0" index="0" speed="6.51" length="9.03" shape="386.40,392.00 388.85,391.65 390.60,390.60 391.65,388.85 392.00,386.40"/>
    </edge>
    <edge id=":n1_13" function="internal">
        <lane id=":n1_13_0" index="0" speed="20.00" length="27.20" shape="386.40,392.00 413.60,392.00"/>
        <lane id=":n1_13_1" index="1" speed="20.00" length="27.20" shape="386.40,395.20 413.60,395.20"/>
    </edge>
    <edge id=":n1_15" function="internal">
        <lane id=":n1_15_0" index="0" speed="10.88" length="14.35" shape="386.40,398.40 394.45,399.35 400.05,402.12"/>
    </edge>
    <edge id=":n1_19" function="internal">
        <lane id=":n1_19_0" index="0" speed="10.88" length="12.79" shape="400.05,402.12 400.20,402.20 403.65,406.95 404.80,413.60"/>
    </edge>
    <edge id=":n2_0" function="internal">
        <lane id=":n2_0_0" index="0" speed="6.51" length="9.03" shape="792.00,413.60 791.65,411.15 790.60,409.40 788.85,408.35 786.40,408.00"/>
    </edge>
    <edge id=":n2_1" function="internal">
        <lane id=":n2_1_0" index="0" speed="20.00" length="27.20" shape="792.00,413.60 792.00,386.40"/>
        <lane id=":n2_1_1" index="1" speed="20.00" length="27.20" shape="795.20,413.60 795.20,386.40"/>
    </edge>
    <edge id=":n2_3" function="internal">
        <lane id=":n2_3_0" index="0" speed="10.88" length="14.35" shape="798.40,413.60 799.35,405.55 802.12,399.95"/>
    </edge>
    <edge id=":n2_16" function="internal">
        <lane id=":n2_16_0" index="0" speed="10.88" length="12.79" shape="802.12,399.95 802.20,399.80 806.95,396.35 813.60,395.20"/>
    </edge>
    <edge id=":n2_4" function="internal">
        <lane id=":n2_4_0" index="0" speed="6.51" length="9.03" shape="813.60,408.00 811.15,408.35 809.40,409.40 808.35,411.15 808.00,413.60"/>
    </edge>
    <edge id=":n2_5" function="internal">
        <lane id=":n2_5_0" index="0" speed="20.00" length="27.20" shape="813.60,408.00 786.40,408.00"/>
        <lane id=":n2_5_1" index="1" speed="20.00" length="27.20" shape="813.60,404.80 786.40,404.80"/>
    </edge>
    <edge id=":n2_7" function="internal">
        <lane id=":n2_7_0" index="0" speed="10.88" length="14.35" shape="813.60,401.60 805.55,400.65 799.95,397.88"/>
    </edge>
    <edge id=":n2_17" function="internal">
        <lane id=":n2_17_0" index="0" speed="10.88" length="12.79" shape="799.95,397.88 799.80,397.80 796.35,393.05 795.20,386.40"/>
    </edge>
    <edge id=":n2_8" function="internal">
        <lane id=":n2_8_0" index="0" speed="6.51" length="9.03" shape="808.00,386.40 808.35,388.85 809.40,390.60 811.15,391.65 813.60,392.00"/>
    </edge>
    <edge id=":n2_9" function="internal">
        <lane id=":n2_9_0" index="0" speed="20.00" length="27.20" shape="808.00,386.40 808.00,413.60"/>
        <lane id=":n2_9_1" index="1" speed="20.00" length="27.20" shape="804.80,386.40 804.80,413.60"/>
    </edge>
    <edge id=":n2_11" function="internal">
        <lane id=":n2_11_0" index="0" speed="10.88" length="14.35" shape="801.60,386.40 800.65,394.45 797.88,400.05"/>
    </edge>
    <edge id=":n2_18" function="internal">
        <lane id=":n2_18_0" index="0" speed="10.88" length="12.79" shape="797.88,400.05 797.80,400.20 793.05,403.65 786.40,404.80"/>
    </edge>
    <edge id=":n2_12" function="internal">
        <lane id=":n2_12_0" index="0" speed="6.51" length="9.03" shape="786.40,392.00 788.85,391.65 790.60,390.60 791.65,388.85 792.00,386.40"/>
    </edge>
    <edge id=":n2_13" function="internal">
        <lane id=":n2_13_0" index="0" speed="20.00" length="27.20" shape="786.40,392.00 813.60,392.00"/>
        <lane id=":n2_13_1" index="1" speed="20.00" length="27.20" shape="786.40,395.20 813.60,395.20"/>
    </edge>
    <edge id=":n2_15" function="internal">
        <lane id=":n2_15_0" index="0" speed="10.88" length="14.35" shape="786.40,398.40 794.45,399.35 800.05,402.12"/>
    </edge>
    <edge id=":n2_19" function="internal">
        <lane id=":n2_19_0" index="0" speed="10.88" length="12.79" shape="800.05,402.12 800.20,402.20 803.65,406.95 804.80,413.60"/>
    </edge>
    <edge id=":n3_0" function="internal">
        <lane id=":n3_0_0" index="0" speed="6.51" length="9.03" shape="1192.00,413.60 1191.65,411.15 1190.60,409.40 1188.85,408.35 1186.40,408.00"/>
    </edge>
    <edge id=":n3_1" function="internal">
        <lane id=":n3_1_0" index="0" speed="20.00" length="27.20" shape="1192.00,413.60 1192.00,386.40"/>
        <lane id=":n3_1_1" index="1" speed="20.00" length="27.20" shape="1195.20,413.60 1195.20,386.40"/>
    </edge>
    <edge id=":n3_3" function="internal">
        <lane id=":n3_3_0" index="0" speed="10.88" length="14.35" shape="1198.40,413.60 1199.35,405.55 1202.12,399.95"/>
    </edge>
    <edge id=":n3_16" function="internal">
        <lane id=":n3_16_0" index="0" speed="10.88" length="12.79" shape="1202.12,399.95 1202.20,399.80 1206.95,396.35 1213.60,395.20"/>
    </edge>
    <edge id=":n3_4" function="internal">
        <lane id=":n3_4_0" index="0" speed="6.51" length="9.03" shape="1213.60,408.00 1211.15,408.35 1209.40,409.40 1208.35,411.15 1208.00,413.60"/>
    </edge>
    <edge id=":n3_5" function="internal">
        <lane id=":n3_5_0" index="0" speed="20.00" length="27.20" shape="1213.60,408.00 1186.40,408.00"/>
        <lane id=":n3_5_1" index="1" speed="20.00" length="27.20" shape="1213.60,404.80 1186.40,404.80"/>
    </edge>
    <edge id=":n3_7" function="internal">
        <lane id=":n3_7_0" index="0" speed="10.88" length="14.35" shape="1213.60,401.60 1205.55,400.65 1199.95,397.88"/>
    </edge>
    <edge id=":n3_17" function="internal">
        <lane id=":n3_17_0" index="0" speed="10.88" length="12.79" shape="1199.95,397.88 1199.80,397.80 1196.35,393.05 1195.20,386.40"/>
    </edge>
    <edge id=":n3_8" function="internal">
        <lane id=":n3_8_0" index="0" speed="6.51" length="9.03" shape="1208.00,386.40 1208.35,388.85 1209.40,390.60 1211.15,391.65 1213.60,392.00"/>
    </edge>
    <edge id=":n3_9" function="internal">
        <lane id=":n3_9_0" index="0" speed="20.00" length="27.20" shape="1208.00,386.40 1208.00,413.60"/>
        <lane id=":n3_9_1" index="1" speed="20.00" length="27.20" shape="1204.80,386.40 1204.80,413.60"/>
    </edge>
    <edge id=":n3_11" function="internal">
        <lane id=":n3_11_0" index="0" speed="10.88" length="14.35" shape="1201.60,386.40 1200.65,394.45 1197.88,400.05"/>
    </edge>
    <edge id=":n3_18" function="internal">
        <lane id=":n3_18_0" index="0" speed="10.88" length="12.79" shape="1197.88,400.05 1197.80,400.20 1193.05,403.65 1186.40,404.80"/>
    </edge>
    <edge id=":n3_12" function="internal">
        <lane id=":n3_12_0" index="0" speed="6.51" length="9.03" shape="1186.40,392.00 1188.85,391.65 1190.60,390.60 1191.65,388.85 1192.00,386.40"/>
    </edge>
    <edge id=":n3_13" function="internal">
        <lane id=":n3_13_0" index="0" speed="20.00" length="27.20" shape="1186.40,392.00 1213.60,392.00"/>
        <lane id=":n3_13_1" index="1" speed="20.00" length="27.20" shape="1186.40,395.20 1213.60,395.20"/>
    </edge>
    <edge id=":n3_15" function="internal">
        <lane id=":n3_15_0" index="0" speed="10.88" length="14.35" shape="1186.40,398.40 1194.45,399.35 1200.05,402.12"/>
    </edge>
    <edge id=":n3_19" function="internal">
        <lane id=":n3_19_0" index="0" speed="10.88" length="12.79" shape="1200.05,402.12 1200.20,402.20 1203.65,406.95 1204.80,413.60"/>
    </edge>
    <edge id=":n4_0" function="internal">
        <lane id=":n4_0_0" index="0" speed="6.51" length="9.03" shape="1592.00,413.60 1591.65,411.15 1590.60,409.40 1588.85,408.35 1586.40,408.00"/>
    </edge>
    <edge id=":n4_1" function="internal">
        <lane id=":n4_1_0" index="0" speed="20.00" length="27.20" shape="1592.00,413.60 1592.00,386.40"/>
        <lane id=":n4_1_1" index="1" speed="20.00" length="27.20" shape="1595.20,413.60 1595.20,386.40"/>
    </edge>
    <edge id=":n4_3" function="internal">
        <lane id=":n4_3_0" index="0" speed="10.88" length="14.35" shape="1598.40,413.60 1599.35,405.55 1602.12,399.95"/>
    </edge>
    <edge id=":n4_16" function="internal">
        <lane id=":n4_16_0" index="0" speed="10.88" length="12.79" shape="1602.12,399.95 1602.20,399.80 1606.95,396.35 1613.60,395.20"/>
    </edge>
    <edge id=":n4_4" function="internal">
        <lane id=":n4_4_0" index="0" speed="6.51" length="9.03" shape="1613.60,408.00 1611.15,408.35 1609.40,409.40 1608.35,411.15 1608.00,413.60"/>
    </edge>
    <edge id=":n4_5" function="internal">
        <lane id=":n4_5_0" index="0" speed="20.00" length="27.20" shape="1613.60,408.00 1586.40,408.00"/>
        <lane id=":n4_5_1" index="1" speed="20.00" length="27.20" shape="1613.60,404.80 1586.40,404.80"/>
    </edge>
    <edge id=":n4_7" function="internal">
        <lane id=":n4_7_0" index="0" speed="10.88" length="14.35" shape="1613.60,401.60 1605.55,400.65 1599.95,397.88"/>
    </edge>
    <edge id=":n4_17" function="internal">
        <lane id=":n4_17_0" index="0" speed="10.88" length="12.79" shape="1599.95,397.88 1599.80,397.80 1596.35,393.05 1595.20,386.40"/>
    </edge>
    <edge id=":n4_8" function="internal">
        <lane id=":n4_8_0" index="0" speed="6.51" length="9.03" shape="1608.00,386.40 1608.35,388.85 1609.40,390.60 1611.15,391.65 1613.60,392.00"/>
    </edge>
    <edge id=":n4_9" function="internal">
        <lane id=":n4_9_0" index="0" speed="20.00" length="27.20" shape="1608.00,386.40 1608.00,413.60"/>
        <lane id=":n4_9_1" index="1" speed="20.00" length="27.20" shape="1604.80,386.40 1604.80,413.60"/>
    </edge>
    <edge id=":n4_11" function="internal">
        <lane id=":n4_11_0" index="0" speed="10.88" length="14.35" shape="1601.60,386.40 1600.65,394.45 1597.88,400.05"/>
    </edge>
    <edge id=":n4_18" function="internal">
        <lane id=":n4_18_0" index="0" speed="10.88" length="12.79" shape="1597.88,400.05 1597.80,400.20 1593.05,403.65 1586.40,404.80"/>
    </edge>
    <edge id=":n4_12" function="internal">
        <lane id=":n4_12_0" index="0" speed="6.51" length="9.03" shape="1586.40,392.00 1588.85,391.65 1590.60,390.60 1591.65,388.85 1592.00,386.40"/>
    </edge>
    <edge id=":n4_13" function="internal">
        <lane id=":n4_13_0" index="0" speed="20.00" length="27.20" shape="1586.40,392.00 1613.60,392.00"/>
        <lane id=":n4_13_1" index="1" speed="20.00" length="27.20" shape="1586.40,395.20 1613.60,395.20"/>
    </edge>
    <edge id=":n4_15" function="internal">
        <lane id=":n4_15_0" index="0" speed="10.88" length="14.35" shape="1586.40,398.40 1594.45,399.35 1600.05,402.12"/>
    </edge>
    <edge id=":n4_19" function="internal">
        <lane id=":n4_19_0" index="0" speed="10.88" length="12.79" shape="1600.05,402.12 1600.20,402.20 1603.65,406.95 1604.80,413.60"/>
    </edge>
    <edge id=":n5_0" function="internal">
        <lane id=":n5_0_0" index="0" speed="6.51" length="9.03" shape="1992.00,413.60 1991.65,411.15 1990.60,409.40 1988.85,408.35 1986.40,408.00"/>
    </edge>
    <edge id=":n5_1" function="internal">
        <lane id=":n5_1_0" index="0" speed="20.00" length="27.20" shape="1992.00,413.60 1992.00,386.40"/>
        <lane id=":n5_1_1" index="1" speed="20.00" length="27.20" shape="1995.20,413.60 1995.20,386.40"/>
    </edge>
    <edge id=":n5_3" function="internal">
        <lane id=":n5_3_0" index="0" speed="10.88" length="14.35" shape="1998.40,413.60 1999.35,405.55 2002.12,399.95"/>
    </edge>
    <edge id=":n5_16" function="internal">
        <lane id=":n5_16_0" index="0" speed="10.88" length="12.79" shape="2002.12,399.95 2002.20,399.80 2006.95,396.35 2013.60,395.20"/>
    </edge>
    <edge id=":n5_4" function="internal">
        <lane id=":n5_4_0" index="0" speed="6.51" length="9.03" shape="2013.60,408.00 2011.15,408.35 2009.40,409.40 2008.35,411.15 2008.00,413.60"/>
    </edge>
    <edge id=":n5_5" function="internal">
        <lane id=":n5_5_0" index="0" speed="20.00" length="27.20" shape="2013.60,408.00 1986.40,408.00"/>
        <lane id=":n5_5_1" index="1" speed="20.00" length="27.20" shape="2013.60,404.80 1986.40,404.80"/>
    </edge>
    <edge id=":n5_7" function="internal">
        <lane id=":n5_7_0" index="0" speed="10.88" length="14.35" shape="2013.60,401.60 2005.55,400.65 1999.95,397.88"/>
    </edge>
    <edge id=":n5_17" function="internal">
        <lane id=":n5_17_0" index="0" speed="10.88" length="12.79" shape="1999.95,397.88 1999.80,397.80 1996.35,393.05 1995.20,386.40"/>
    </edge>
    <edge id=":n5_8" function="internal">
        <lane id=":n5_8_0" index="0" speed="6.51" length="9.03" shape="2008.00,386.40 2008.35,388.85 2009.40,390.60 2011.15,391.65 2013.60,392.00"/>
    </edge>
    <edge id=":n5_9" function="internal">
        <lane id=":n5_9_0" index="0" speed="20.00" length="27.20" shape="2008.00,386.40 2008.00,413.60"/>
        <lane id=":n5_9_1" index="1" speed="20.00" length="27.20" shape="2004.80,386.40 2004.80,413.60"/>
    </edge>
    <edge id=":n5_11" function="internal">
        <lane id=":n5_11_0" index="0" speed="10.88" length="14.35" shape="2001.60,386.40 2000.65,394.45 1997.88,400.05"/>
    </edge>
    <edge id=":n5_18" function="internal">
        <lane id=":n5_18_0" index="0" speed="10.88" length="12.79" shape="1997.88,400.05 1997.80,400.20 1993.05,403.65 1986.40,404.80"/>
    </edge>
    <edge id=":n5_12" function="internal">
        <lane id=":n5_12_0" index="0" speed="6.51" length="9.03" shape="1986.40,392.00 1988.85,391.65 1990.60,390.60 1991.65,388.85 1992.00,386.40"/>
    </edge>
    <edge id=":n5_13" function="internal">
        <lane id=":n5_13_0" index="0" speed="20.00" length="27.20" shape="1986.40,392.00 2013.60,392.00"/>
        <lane id=":n5_13_1" index="1" speed="20.00" length="27.20" shape="1986.40,395.20 2013.60,395.20"/>
    </edge>
    <edge id=":n5_15" function="internal">
        <lane id=":n5_15_0" index="0" speed="10.88" length="14.35" shape="1986.40,398.40 1994.45,399.35 2000.05,402.12"/>
    </edge>
    <edge id=":n5_19" function="internal">
        <lane id=":n5_19_0" index="0" speed="10.88" length="12.79" shape="2000.05,402.12 2000.20,402.20 2003.65,406.95 2004.80,413.60"/>
    </edge>
    <edge id=":n6_0" function="internal">
        <lane id=":n6_0_0" index="0" speed="6.51" length="9.03" shape="2392.00,413.60 2391.65,411.15 2390.60,409.40 2388.85,408.35 2386.40,408.00"/>
    </edge>
    <edge id=":n6_1" function="internal">
        <lane id=":n6_1_0" index="0" speed="20.00" length="27.20" shape="2392.00,413.60 2392.00,386.40"/>
        <lane id=":n6_1_1" index="1" speed="20.00" length="27.20" shape="2395.20,413.60 2395.20,386.40"/>
    </edge>
    <edge id=":n6_3" function="internal">
        <lane id=":n6_3_0" index="0" speed="10.88" length="14.35" shape="2398.40,413.60 2399.35,405.55 2402.12,399.95"/>
    </edge>
    <edge id=":n6_16" function="internal">
        <lane id=":n6_16_0" index="0" speed="10.88" length="12.79" shape="2402.12,399.95 2402.20,399.80 2406.95,396.35 2413.60,395.20"/>
    </edge>
    <edge id=":n6_4" function="internal">
        <lane id=":n6_4_0" index="0" speed="6.51" length="9.03" shape="2413.60,408.00 2411.15,408.35 2409.40,409.40 2408.35,411.15 2408.00,413.60"/>
    </edge>
    <edge id=":n6_5" function="internal">
        <lane id=":n6_5_0" index="0" speed="20.00" length="27.20" shape="2413.60,408.00 2386.40,408.00"/>
        <lane id=":n6_5_1" index="1" speed="20.00" length="27.20" shape="2413.60,404.80 2386.40,404.80"/>
    </edge>
    <edge id=":n6_7" function="internal">
        <lane id=":n6_7_0" index="0" speed="10.88" length="14.35" shape="2413.60,401.60 2405.55,400.65 2399.95,397.88"/>
    </edge>
    <edge id=":n6_17" function="internal">
        <lane id=":n6_17_0" index="0" speed="10.88" length="12.79" shape="2399.95,397.88 2399.80,397.80 2396.35,393.05 2395.20,386.40"/>
    </edge>
    <edge id=":n6_8" function="internal">
        <lane id=":n6_8_0" index="0" speed="6.51" length="9.03" shape="2408.00,386.40 2408.35,388.85 2409.40,390.60 2411.15,391.65 2413.60,392.00"/>
    </edge>
    <edge id=":n6_9" function="internal">
        <lane id=":n6_9_0" index="0" speed="20.00" length="27.20" shape="2408.00,386.40 2408.00,413.60"/>
        <lane id=":n6_9_1" index="1" speed="20.00" length="27.20" shape="2404.80,386.40 2404.80,413.60"/>
    </edge>
    <edge id=":n6_11" function="internal">
        <lane id=":n6_11_0" index="0" speed="10.88" length="14.35" shape="2401.60,386.40 2400.65,394.45 2397.88,400.05"/>
    </edge>
    <edge id=":n6_18" function="internal">
        <lane id=":n6_18_0" index="0" speed="10.88" length="12.79" shape="2397.88,400.05 2397.80,400.20 2393.05,403.65 2386.40,404.80"/>
    </edge>
    <edge id=":n6_12" function="internal">
        <lane id=":n6_12_0" index="0" speed="6.51" length="9.03" shape="2386.40,392.00 2388.85,391.65 2390.60,390.60 2391.65,388.85 2392.00,386.40"/>
    </edge>
    <edge id=":n6_13" function="internal">
        <lane id=":n6_13_0" index="0" speed="20.00" length="27.20" shape="2386.40,392.00 2413.60,392.00"/>
        <lane id=":n6_13_1" index="1" speed="20.00" length="27.20" shape="2386.40,395.20 2413.60,395.20"/>
    </edge>
    <edge id=":n6_15" function="internal">
        <lane id=":n6_15_0" index="0" speed="10.88" length="14.35" shape="2386.40,398.40 2394.45,399.35 2400.05,402.12"/>
    </edge>
    <edge id=":n6_19" function="internal">
        <lane id=":n6_19_0" index="0" speed="10.88" length="12.79" shape="2400.05,402.12 2400.20,402.20 2403.65,406.95 2404.80,413.60"/>
    </edge>

    <edge id="n10_n2" from="n10" to="n2" priority="1" type="a">
        <lane id="n10_n2_0" index="0" speed="20.00" length="386.40" shape="792.00,800.00 792.00,413.60"/>
        <lane id="n10_n2_1" index="1" speed="20.00" length="386.40" shape="795.20,800.00 795.20,413.60"/>
        <lane id="n10_n2_2" index="2" speed="20.00" length="386.40" shape="798.40,800.00 798.40,413.60"/>
    </edge>
    <edge id="n11_n3" from="n11" to="n3" priority="1" type="a">
        <lane id="n11_n3_0" index="0" speed="20.00" length="386.40" shape="1192.00,800.00 1192.00,413.60"/>
        <lane id="n11_n3_1" index="1" speed="20.00" length="386.40" shape="1195.20,800.00 1195.20,413.60"/>
        <lane id="n11_n3_2" index="2" speed="20.00" length="386.40" shape="1198.40,800.00 1198.40,413.60"/>
    </edge>
    <edge id="n12_n4" from="n12" to="n4" priority="1" type="a">
        <lane id="n12_n4_0" index="0" speed="20.00" length="386.40" shape="1592.00,800.00 1592.00,413.60"/>
        <lane id="n12_n4_1" index="1" speed="20.00" length="386.40" shape="1595.20,800.00 1595.20,413.60"/>
        <lane id="n12_n4_2" index="2" speed="20.00" length="386.40" shape="1598.40,800.00 1598.40,413.60"/>
    </edge>
    <edge id="n13_n5" from="n13" to="n5" priority="1" type="a">
        <lane id="n13_n5_0" index="0" speed="20.00" length="386.40" shape="1992.00,800.00 1992.00,413.60"/>
        <lane id="n13_n5_1" index="1" speed="20.00" length="386.40" shape="1995.20,800.00 1995.20,413.60"/>
        <lane id="n13_n5_2" index="2" speed="20.00" length="386.40" shape="1998.40,800.00 1998.40,413.60"/>
    </edge>
    <edge id="n14_n6" from="n14" to="n6" priority="1" type="a">
        <lane id="n14_n6_0" index="0" speed="20.00" length="386.40" shape="2392.00,800.00 2392.00,413.60"/>
        <lane id="n14_n6_1" index="1" speed="20.00" length="386.40" shape="2395.20,800.00 2395.20,413.60"/>
        <lane id="n14_n6_2" index="2" speed="20.00" length="386.40" shape="2398.40,800.00 2398.40,413.60"/>
    </edge>
    <edge id="n15_n1" from="n15" to="n1" priority="1" type="a">
        <lane id="n15_n1_0" index="0" speed="20.00" length="386.40" shape="408.00,0.00 408.00,386.40"/>
        <lane id="n15_n1_1" index="1" speed="20.00" length="386.40" shape="404.80,0.00 404.80,386.40"/>
        <lane id="n15_n1_2" index="2" speed="20.00" length="386.40" shape="401.60,0.00 401.60,386.40"/>
    </edge>
    <edge id="n16_n2" from="n16" to="n2" priority="1" type="a">
        <lane id="n16_n2_0" index="0" speed="20.00" length="386.40" shape="808.00,0.00 808.00,386.40"/>
        <lane id="n16_n2_1" index="1" speed="20.00" length="386.40" shape="804.80,0.00 804.80,386.40"/>
        <lane id="n16_n2_2" index="2" speed="20.00" length="386.40" shape="801.60,0.00 801.60,386.40"/>
    </edge>
    <edge id="n17_n3" from="n17" to="n3" priority="1" type="a">
        <lane id="n17_n3_0" index="0" speed="20.00" length="386.40" shape="1208.00,0.00 1208.00,386.40"/>
        <lane id="n17_n3_1" index="1" speed="20.00" length="386.40" shape="1204.80,0.00 1204.80,386.40"/>
        <lane id="n17_n3_2" index="2" speed="20.00" length="386.40" shape="1201.60,0.00 1201.60,386.40"/>
    </edge>
    <edge id="n18_n4" from="n18" to="n4" priority="1" type="a">
        <lane id="n18_n4_0" index="0" speed="20.00" length="386.40" shape="1608.00,0.00 1608.00,386.40"/>
        <lane id="n18_n4_1" index="1" speed="20.00" length="386.40" shape="1604.80,0.00 1604.80,386.40"/>
        <lane id="n18_n4_2" index="2" speed="20.00" length="386.40" shape="1601.60,0.00 1601.60,386.40"/>
    </edge>
    <edge id="n19_n5" from="n19" to="n5" priority="1" type="a">
        <lane id="n19_n5_0" index="0" speed="20.00" length="386.40" shape="2008.00,0.00 2008.00,386.40"/>
        <lane id="n19_n5_1" index="1" speed="20.00" length="386.40" shape="2004.80,0.00 2004.80,386.40"/>
        <lane id="n19_n5_2" index="2" speed="20.00" length="386.40" shape="2001.60,0.00 2001.60,386.40"/>
    </edge>
    <edge id="n1_n15" from="n1" to="n15" priority="1" type="a">
        <lane id="n1_n15_0" index="0" speed="20.00" length="386.40" shape="392.00,386.40 392.00,0.00"/>
        <lane id="n1_n15_1" index="1" speed="20.00" length="386.40" shape="395.20,386.40 395.20,0.00"/>
        <lane id="n1_n15_2" index="2" speed="20.00" length="386.40" shape="398.40,386.40 398.40,0.00"/>
    </edge>
    <edge id="n1_n2" from="n1" to="n2" priority="1" type="a">
        <lane id="n1_n2_0" index="0" speed="20.00" length="372.80" shape="413.60,392.00 786.40,392.00"/>
        <lane id="n1_n2_1" index="1" speed="20.00" length="372.80" shape="413.60,395.20 786.40,395.20"/>
        <lane id="n1_n2_2" index="2" speed="20.00" length="372.80" shape="413.60,398.40 786.40,398.40"/>
    </edge>
    <edge id="n1_n7" from="n1" to="n7" priority="1" type="a">
        <lane id="n1_n7_0" index="0" speed="20.00" length="386.40" shape="386.40,408.00 0.00,408.00"/>
        <lane id="n1_n7_1" index="1" speed="20.00" length="386.40" shape="386.40,404.80 0.00,404.80"/>
        <lane id="n1_n7_2" index="2" speed="20.00" length="386.40" shape="386.40,401.60 0.00,401.60"/>
    </edge>
    <edge id="n1_n9" from="n1" to="n9" priority="1" type="a">
        <lane id="n1_n9_0" index="0" speed="20.00" length="386.40" shape="408.00,413.60 408.00,800.00"/>
        <lane id="n1_n9_1" index="1" speed="20.00" length="386.40" shape="404.80,413.60 404.80,800.00"/>
        <lane id="n1_n9_2" index="2" speed="20.00" length="386.40" shape="401.60,413.60 401.60,800.00"/>
    </edge>
    <edge id="n20_n6" from="n20" to="n6" priority="1" type="a">
        <lane id="n20_n6_0" index="0" speed="20.00" length="386.40" shape="2408.00,0.00 2408.00,386.40"/>
        <lane id="n20_n6_1" index="1" speed="20.00" length="386.40" shape="2404.80,0.00 2404.80,386.40"/>
        <lane id="n20_n6_2" index="2" speed="20.00" length="386.40" shape="2401.60,0.00 2401.60,386.40"/>
    </edge>
    <edge id="n2_n1" from="n2" to="n1" priority="1" type="a">
        <lane id="n2_n1_0" index="0" speed="20.00" length="372.80" shape="786.40,408.00 413.60,408.00"/>
        <lane id="n2_n1_1" index="1" speed="20.00" length="372.80" shape="786.40,404.80 413.60,404.80"/>
        <lane id="n2_n1_2" index="2" speed="20.00" length="372.80" shape="786.40,401.60 413.60,401.60"/>
    </edge>
    <edge id="n2_n10" from="n2" to="n10" priority="1" type="a">
        <lane id="n2_n10_0" index="0" speed="20.00" length="386.40" shape="808.00,413.60 808.00,800.00"/>
        <lane id="n2_n10_1" index="1" speed="20.00" length="386.40" shape="804.80,413.60 804.80,800.00"/>
        <lane id="n2_n10_2" index="2" speed="20.00" length="386.40" shape="801.60,413.60 801.60,800.00"/>
    </edge>
    <edge id="n2_n16" from="n2" to="n16" priority="1" type="a">
        <lane id="n2_n16_0" index="0" speed="20.00" length="386.40" shape="792.00,386.40 792.00,0.00"/>
        <lane id="n2_n16_1" index="1" speed="20.00" length="386.40" shape="795.20,386.40 795.20,0.00"/>
        <lane id="n2_n16_2" index="2" speed="20.00" length="386.40" shape="798.40,386.40 798.40,0.00"/>
    </edge>
    <edge id="n2_n3" from="n2" to="n3" priority="1" type="a">
        <lane id="n2_n3_0" index="0" speed="20.00" length="372.80" shape="813.60,392.00 1186.40,392.00"/>
        <lane id="n2_n3_1" index="1" speed="20.00" length="372.80" shape="813.60,395.20 1186.40,395.20"/>
        <lane id="n2_n3_2" index="2" speed="20.00" length="372.80" shape="813.60,398.40 1186.40,398.40"/>
    </edge>
    <edge id="n3_n11" from="n3" to="n11" priority="1" type="a">
        <lane id="n3_n11_0" index="0" speed="20.00" length="386.40" shape="1208.00,413.60 1208.00,800.00"/>
        <lane id="n3_n11_1" index="1" speed="20.00" length="386.40" shape="1204.80,413.60 1204.80,800.00"/>
        <lane id="n3_n11_2" index="2" speed="20.00" length="386.40" shape="1201.60,413.60 1201.60,800.00"/>
    </edge>
    <edge id="n3_n17" from="n3" to="n17" priority="1" type="a">
        <lane id="n3_n17_0" index="0" speed="20.00" length="386.40" shape="1192.00,386.40 1192.00,0.00"/>
        <lane id="n3_n17_1" index="1" speed="20.00" length="386.40" shape="1195.20,386.40 1195.20,0.00"/>